read_data config.data
Reading data file ...
  orthogonal box = (0.0000000 0.0000000 0.0000000) to (16.147754 16.147754 16.147754)
  reading atoms ...
  4000 atoms
  reading velocities ...
  4000 velocities
thermo_style custom step temp pe ke etotal press
velocity all create $t 12345 mom yes rot yes dist gaussian
velocity all create 0.7 12345 mom yes rot yes dist gaussian
# NVT simulation at T = $t (till equilibration)
fix mynve all nve
fix mylgv all langevin $t $t 0.1 12345 zero yes
fix mylgv all langevin 0.7 $t 0.1 12345 zero yes
fix mylgv all langevin 0.7 0.7 0.1 12345 zero yes
timestep 0.001
run 5000
  update every 1 steps, delay 10 steps, check yes
Step Temp PotEng KinEng TotEng Press
0          0.7   -5.4449459    1.0497375   -4.3952084    7.2157419
Averages over the last 51 of 101 rows, steps 2500 to 5000:
Temp PotEng KinEng TotEng Press
0.703471 -6.1211 1.05494 -5.06616 3.77183
Loop time of 5.61858 on 1 procs for 5000 steps with 4000 atoms

clear
next t
next a
jump SELF
# 1) Initialization
units lj
dimension 3
atom_style atomic
pair_style lj/cut 2.5
boundary p p p

# 2) System definition
variable a loop 6
# Define temperatures
variable t index 1.1 1.0 0.9 0.8 0.7 0.6

# 4) Visualization
thermo 50

# 5) Run
log log.$a
log log.6
