read_data config.data
Reading data file ...
  orthogonal box = (0.0000000 0.0000000 0.0000000) to (16.147754 16.147754 16.147754)
  reading atoms ...
  4000 atoms
  reading velocities ...
  4000 velocities
thermo_style custom step temp pe ke etotal press
velocity all create $t 12345 mom yes rot yes dist gaussian
velocity all create 0.8 12345 mom yes rot yes dist gaussian
# NVT simulation at T = $t (till equilibration)
fix mynve all nve
fix mylgv all langevin $t $t 0.1 12345 zero yes
fix mylgv all langevin 0.8 $t 0.1 12345 zero yes
fix mylgv all langevin 0.8 0.8 0.1 12345 zero yes
timestep 0.001
run 5000
  update every 1 steps, delay 10 steps, check yes
Step Temp PotEng KinEng TotEng Press
0          0.8   -5.4449459       1.1997   -4.2452459    7.3107181
Averages over the last 51 of 101 rows, steps 2500 to 5000:
Temp PotEng KinEng TotEng Press
0.804069 -5.99129 1.2058 -4.78549 4.54241
Loop time of 5.63629 on 1 procs for 5000 steps with 4000 atoms

clear
next t
next a
jump SELF
# 1) Initialization
units lj
dimension 3
atom_style atomic
pair_style lj/cut 2.5
boundary p p p

# 2) System definition
variable a loop 6
# Define temperatures
variable t index 1.1 1.0 0.9 0.8 0.7 0.6

# 4) Visualization
thermo 50

# 5) Run
log log.$a
log log.5
